MODEL 1
REMARK VINA RESULT:      -6.0      0.000      0.000
REMARK  Name = 1548943
REMARK  13 active torsions:
REMARK  status: ('A' for Active; 'I' for Inactive)
REMARK    1  A    between atoms: O_2  and  C_19
REMARK    2  A    between atoms: O_2  and  C_22
REMARK    3  A    between atoms: O_3  and  C_21
REMARK    4  A    between atoms: N_4  and  C_13
REMARK    5  A    between atoms: C_5  and  C_6
REMARK    6  A    between atoms: C_5  and  C_7
REMARK    7  A    between atoms: C_6  and  C_8
REMARK    8  A    between atoms: C_7  and  C_10
REMARK    9  A    between atoms: C_8  and  C_11
REMARK   10  A    between atoms: C_9  and  C_12
REMARK   11  A    between atoms: C_9  and  C_15
REMARK   12  A    between atoms: C_9  and  C_16
REMARK   13  A    between atoms: C_13  and  C_14
REMARK                            x       y       z     vdW  Elec       q    Type
REMARK                         _______ _______ _______ _____ _____    ______ ____
ROOT
ATOM      1  O   UNL     1     173.735 179.060 123.779  0.00  0.00    +0.000 OA
ATOM      4  N   UNL     1     172.435 177.280 124.521  0.00  0.00    +0.000 N 
ATOM     11  C   UNL     1     173.626 177.917 124.219  0.00  0.00    +0.000 C 
ATOM     23  H   UNL     1     172.452 176.325 124.863  0.00  0.00    +0.000 HD
ENDROOT
BRANCH  11   8
ATOM      8  C   UNL     1     174.842 177.051 124.480  0.00  0.00    +0.000 C 
BRANCH   8   6
ATOM      6  C   UNL     1     174.480 175.710 125.120  0.00  0.00    +0.000 C 
BRANCH   6   5
ATOM      5  C   UNL     1     174.988 174.517 124.301  0.00  0.00    +0.000 C 
BRANCH   5   7
ATOM      7  C   UNL     1     174.242 174.331 122.974  0.00  0.00    +0.000 C 
BRANCH   7  10
ATOM     10  C   UNL     1     174.934 174.980 121.810  0.00  0.00    +0.000 C 
ATOM     12  C   UNL     1     174.567 174.802 120.532  0.00  0.00    +0.000 C 
BRANCH  12   9
ATOM      9  C   UNL     1     175.257 175.461 119.365  0.00  0.00    +0.000 C 
ATOM     15  C   UNL     1     176.701 175.805 119.731  0.00  0.00    +0.000 C 
ATOM     16  C   UNL     1     174.496 176.718 118.942  0.00  0.00    +0.000 C 
ENDBRANCH  12   9
ENDBRANCH   7  10
ENDBRANCH   5   7
ENDBRANCH   6   5
ENDBRANCH   8   6
ENDBRANCH  11   8
BRANCH   4  13
ATOM     13  C   UNL     1     171.142 177.901 124.349  0.00  0.00    +0.000 C 
BRANCH  13  14
ATOM     14  C   UNL     1     170.284 177.759 125.573  0.00  0.00    +0.000 A 
ATOM     17  C   UNL     1     169.019 177.179 125.473  0.00  0.00    +0.000 A 
ATOM     18  C   UNL     1     170.751 178.206 126.809  0.00  0.00    +0.000 A 
ATOM     19  C   UNL     1     168.222 177.045 126.610  0.00  0.00    +0.000 A 
ATOM     20  C   UNL     1     169.953 178.073 127.946  0.00  0.00    +0.000 A 
ATOM     21  C   UNL     1     168.689 177.493 127.846  0.00  0.00    +0.000 A 
BRANCH  19   2
ATOM      2  O   UNL     1     166.988 176.477 126.501  0.00  0.00    +0.000 OA
ATOM     22  C   UNL     1     166.715 175.744 125.308  0.00  0.00    +0.000 C 
ENDBRANCH  19   2
BRANCH  21   3
ATOM      3  O   UNL     1     167.920 177.369 128.964  0.00  0.00    +0.000 OA
ATOM     24  H   UNL     1     167.438 176.525 128.925  0.00  0.00    +0.000 HD
ENDBRANCH  21   3
ENDBRANCH  13  14
ENDBRANCH   4  13
TORSDOF 10
ENDMDL
MODEL 2
REMARK VINA RESULT:      -5.8     56.606     58.968
REMARK  Name = 1548943
REMARK  13 active torsions:
REMARK  status: ('A' for Active; 'I' for Inactive)
REMARK    1  A    between atoms: O_2  and  C_19
REMARK    2  A    between atoms: O_2  and  C_22
REMARK    3  A    between atoms: O_3  and  C_21
REMARK    4  A    between atoms: N_4  and  C_13
REMARK    5  A    between atoms: C_5  and  C_6
REMARK    6  A    between atoms: C_5  and  C_7
REMARK    7  A    between atoms: C_6  and  C_8
REMARK    8  A    between atoms: C_7  and  C_10
REMARK    9  A    between atoms: C_8  and  C_11
REMARK   10  A    between atoms: C_9  and  C_12
REMARK   11  A    between atoms: C_9  and  C_15
REMARK   12  A    between atoms: C_9  and  C_16
REMARK   13  A    between atoms: C_13  and  C_14
REMARK                            x       y       z     vdW  Elec       q    Type
REMARK                         _______ _______ _______ _____ _____    ______ ____
ROOT
ATOM      1  O   UNL     1     166.777 121.682  97.517  0.00  0.00    +0.000 OA
ATOM      4  N   UNL     1     166.912 123.999  97.377  0.00  0.00    +0.000 N 
ATOM     11  C   UNL     1     166.483 122.803  97.926  0.00  0.00    +0.000 C 
ATOM     23  H   UNL     1     166.596 124.876  97.779  0.00  0.00    +0.000 HD
ENDROOT
BRANCH  11   8
ATOM      8  C   UNL     1     165.576 122.996  99.126  0.00  0.00    +0.000 C 
BRANCH   8   6
ATOM      6  C   UNL     1     164.817 124.322  99.079  0.00  0.00    +0.000 C 
BRANCH   6   5
ATOM      5  C   UNL     1     165.081 125.188 100.318  0.00  0.00    +0.000 C 
BRANCH   5   7
ATOM      7  C   UNL     1     163.852 125.346 101.221  0.00  0.00    +0.000 C 
BRANCH   7  10
ATOM     10  C   UNL     1     162.989 124.117 101.267  0.00  0.00    +0.000 C 
ATOM     12  C   UNL     1     162.250 123.767 102.330  0.00  0.00    +0.000 C 
BRANCH  12   9
ATOM      9  C   UNL     1     161.378 122.537 102.373  0.00  0.00    +0.000 C 
ATOM     15  C   UNL     1     159.929 122.906 102.057  0.00  0.00    +0.000 C 
ATOM     16  C   UNL     1     161.476 121.868 103.744  0.00  0.00    +0.000 C 
ENDBRANCH  12   9
ENDBRANCH   7  10
ENDBRANCH   5   7
ENDBRANCH   6   5
ENDBRANCH   8   6
ENDBRANCH  11   8
BRANCH   4  13
ATOM     13  C   UNL     1     167.778 124.072  96.222  0.00  0.00    +0.000 C 
BRANCH  13  14
ATOM     14  C   UNL     1     168.809 125.155  96.362  0.00  0.00    +0.000 A 
ATOM     17  C   UNL     1     170.069 124.996  95.785  0.00  0.00    +0.000 A 
ATOM     18  C   UNL     1     168.507 126.319  97.069  0.00  0.00    +0.000 A 
ATOM     19  C   UNL     1     171.026 126.002  95.914  0.00  0.00    +0.000 A 
ATOM     20  C   UNL     1     169.465 127.325  97.198  0.00  0.00    +0.000 A 
ATOM     21  C   UNL     1     170.724 127.167  96.620  0.00  0.00    +0.000 A 
BRANCH  19   2
ATOM      2  O   UNL     1     172.254 125.835  95.346  0.00  0.00    +0.000 OA
ATOM     22  C   UNL     1     173.180 125.000  96.038  0.00  0.00    +0.000 C 
ENDBRANCH  19   2
BRANCH  21   3
ATOM      3  O   UNL     1     171.651 128.156  96.754  0.00  0.00    +0.000 OA
ATOM     24  H   UNL     1     171.279 128.867  97.303  0.00  0.00    +0.000 HD
ENDBRANCH  21   3
ENDBRANCH  13  14
ENDBRANCH   4  13
TORSDOF 10
ENDMDL
MODEL 3
REMARK VINA RESULT:      -5.5     56.582     59.215
REMARK  Name = 1548943
REMARK  13 active torsions:
REMARK  status: ('A' for Active; 'I' for Inactive)
REMARK    1  A    between atoms: O_2  and  C_19
REMARK    2  A    between atoms: O_2  and  C_22
REMARK    3  A    between atoms: O_3  and  C_21
REMARK    4  A    between atoms: N_4  and  C_13
REMARK    5  A    between atoms: C_5  and  C_6
REMARK    6  A    between atoms: C_5  and  C_7
REMARK    7  A    between atoms: C_6  and  C_8
REMARK    8  A    between atoms: C_7  and  C_10
REMARK    9  A    between atoms: C_8  and  C_11
REMARK   10  A    between atoms: C_9  and  C_12
REMARK   11  A    between atoms: C_9  and  C_15
REMARK   12  A    between atoms: C_9  and  C_16
REMARK   13  A    between atoms: C_13  and  C_14
REMARK                            x       y       z     vdW  Elec       q    Type
REMARK                         _______ _______ _______ _____ _____    ______ ____
ROOT
ATOM      1  O   UNL     1     166.385 121.618  98.051  0.00  0.00    +0.000 OA
ATOM      4  N   UNL     1     166.248 123.864  97.462  0.00  0.00    +0.000 N 
ATOM     11  C   UNL     1     165.974 122.760  98.250  0.00  0.00    +0.000 C 
ATOM     23  H   UNL     1     165.843 124.763  97.703  0.00  0.00    +0.000 HD
ENDROOT
BRANCH  11   8
ATOM      8  C   UNL     1     165.081 123.085  99.432  0.00  0.00    +0.000 C 
BRANCH   8   6
ATOM      6  C   UNL     1     164.733 124.571  99.512  0.00  0.00    +0.000 C 
BRANCH   6   5
ATOM      5  C   UNL     1     164.843 125.118 100.941  0.00  0.00    +0.000 C 
BRANCH   5   7
ATOM      7  C   UNL     1     163.506 125.607 101.508  0.00  0.00    +0.000 C 
BRANCH   7  10
ATOM     10  C   UNL     1     162.455 124.535 101.556  0.00  0.00    +0.000 C 
ATOM     12  C   UNL     1     162.574 123.407 102.272  0.00  0.00    +0.000 C 
BRANCH  12   9
ATOM      9  C   UNL     1     161.515 122.335 102.324  0.00  0.00    +0.000 C 
ATOM     15  C   UNL     1     160.149 122.925 101.974  0.00  0.00    +0.000 C 
ATOM     16  C   UNL     1     161.484 121.693 103.711  0.00  0.00    +0.000 C 
ENDBRANCH  12   9
ENDBRANCH   7  10
ENDBRANCH   5   7
ENDBRANCH   6   5
ENDBRANCH   8   6
ENDBRANCH  11   8
BRANCH   4  13
ATOM     13  C   UNL     1     167.071 123.803  96.276  0.00  0.00    +0.000 C 
BRANCH  13  14
ATOM     14  C   UNL     1     168.517 124.068  96.583  0.00  0.00    +0.000 A 
ATOM     17  C   UNL     1     168.910 125.317  97.066  0.00  0.00    +0.000 A 
ATOM     18  C   UNL     1     169.467 123.066  96.386  0.00  0.00    +0.000 A 
ATOM     19  C   UNL     1     170.252 125.563  97.352  0.00  0.00    +0.000 A 
ATOM     20  C   UNL     1     170.811 123.313  96.672  0.00  0.00    +0.000 A 
ATOM     21  C   UNL     1     171.203 124.560  97.155  0.00  0.00    +0.000 A 
BRANCH  19   2
ATOM      2  O   UNL     1     170.624 126.787  97.822  0.00  0.00    +0.000 OA
ATOM     22  C   UNL     1     170.192 127.925  97.080  0.00  0.00    +0.000 C 
ENDBRANCH  19   2
BRANCH  21   3
ATOM      3  O   UNL     1     172.517 124.789  97.430  0.00  0.00    +0.000 OA
ATOM     24  H   UNL     1     172.794 124.209  98.159  0.00  0.00    +0.000 HD
ENDBRANCH  21   3
ENDBRANCH  13  14
ENDBRANCH   4  13
TORSDOF 10
ENDMDL
MODEL 4
REMARK VINA RESULT:      -5.5     29.000     31.687
REMARK  Name = 1548943
REMARK  13 active torsions:
REMARK  status: ('A' for Active; 'I' for Inactive)
REMARK    1  A    between atoms: O_2  and  C_19
REMARK    2  A    between atoms: O_2  and  C_22
REMARK    3  A    between atoms: O_3  and  C_21
REMARK    4  A    between atoms: N_4  and  C_13
REMARK    5  A    between atoms: C_5  and  C_6
REMARK    6  A    between atoms: C_5  and  C_7
REMARK    7  A    between atoms: C_6  and  C_8
REMARK    8  A    between atoms: C_7  and  C_10
REMARK    9  A    between atoms: C_8  and  C_11
REMARK   10  A    between atoms: C_9  and  C_12
REMARK   11  A    between atoms: C_9  and  C_15
REMARK   12  A    between atoms: C_9  and  C_16
REMARK   13  A    between atoms: C_13  and  C_14
REMARK                            x       y       z     vdW  Elec       q    Type
REMARK                         _______ _______ _______ _____ _____    ______ ____
ROOT
ATOM      1  O   UNL     1     195.379 152.746 128.943  0.00  0.00    +0.000 OA
ATOM      4  N   UNL     1     194.014 153.494 130.671  0.00  0.00    +0.000 N 
ATOM     11  C   UNL     1     194.752 152.547 129.982  0.00  0.00    +0.000 C 
ATOM     23  H   UNL     1     193.515 153.223 131.513  0.00  0.00    +0.000 HD
ENDROOT
BRANCH  11   8
ATOM      8  C   UNL     1     194.720 151.181 130.638  0.00  0.00    +0.000 C 
BRANCH   8   6
ATOM      6  C   UNL     1     193.393 150.900 131.343  0.00  0.00    +0.000 C 
BRANCH   6   5
ATOM      5  C   UNL     1     192.452 150.040 130.490  0.00  0.00    +0.000 C 
BRANCH   5   7
ATOM      7  C   UNL     1     191.541 150.864 129.572  0.00  0.00    +0.000 C 
BRANCH   7  10
ATOM     10  C   UNL     1     191.934 150.786 128.124  0.00  0.00    +0.000 C 
ATOM     12  C   UNL     1     192.223 151.859 127.373  0.00  0.00    +0.000 C 
BRANCH  12   9
ATOM      9  C   UNL     1     192.625 151.780 125.922  0.00  0.00    +0.000 C 
ATOM     15  C   UNL     1     193.962 152.490 125.705  0.00  0.00    +0.000 C 
ATOM     16  C   UNL     1     191.539 152.396 125.039  0.00  0.00    +0.000 C 
ENDBRANCH  12   9
ENDBRANCH   7  10
ENDBRANCH   5   7
ENDBRANCH   6   5
ENDBRANCH   8   6
ENDBRANCH  11   8
BRANCH   4  13
ATOM     13  C   UNL     1     193.888 154.866 130.237  0.00  0.00    +0.000 C 
BRANCH  13  14
ATOM     14  C   UNL     1     192.812 155.030 129.202  0.00  0.00    +0.000 A 
ATOM     17  C   UNL     1     193.147 155.407 127.901  0.00  0.00    +0.000 A 
ATOM     18  C   UNL     1     191.477 154.805 129.541  0.00  0.00    +0.000 A 
ATOM     19  C   UNL     1     192.148 155.559 126.940  0.00  0.00    +0.000 A 
ATOM     20  C   UNL     1     190.478 154.957 128.579  0.00  0.00    +0.000 A 
ATOM     21  C   UNL     1     190.814 155.333 127.279  0.00  0.00    +0.000 A 
BRANCH  19   2
ATOM      2  O   UNL     1     192.488 155.928 125.673  0.00  0.00    +0.000 OA
ATOM     22  C   UNL     1     193.603 156.805 125.531  0.00  0.00    +0.000 C 
ENDBRANCH  19   2
BRANCH  21   3
ATOM      3  O   UNL     1     189.829 155.479 126.349  0.00  0.00    +0.000 OA
ATOM     24  H   UNL     1     189.002 155.112 126.704  0.00  0.00    +0.000 HD
ENDBRANCH  21   3
ENDBRANCH  13  14
ENDBRANCH   4  13
TORSDOF 10
ENDMDL
MODEL 5
REMARK VINA RESULT:      -5.4     42.798     44.743
REMARK  Name = 1548943
REMARK  13 active torsions:
REMARK  status: ('A' for Active; 'I' for Inactive)
REMARK    1  A    between atoms: O_2  and  C_19
REMARK    2  A    between atoms: O_2  and  C_22
REMARK    3  A    between atoms: O_3  and  C_21
REMARK    4  A    between atoms: N_4  and  C_13
REMARK    5  A    between atoms: C_5  and  C_6
REMARK    6  A    between atoms: C_5  and  C_7
REMARK    7  A    between atoms: C_6  and  C_8
REMARK    8  A    between atoms: C_7  and  C_10
REMARK    9  A    between atoms: C_8  and  C_11
REMARK   10  A    between atoms: C_9  and  C_12
REMARK   11  A    between atoms: C_9  and  C_15
REMARK   12  A    between atoms: C_9  and  C_16
REMARK   13  A    between atoms: C_13  and  C_14
REMARK                            x       y       z     vdW  Elec       q    Type
REMARK                         _______ _______ _______ _____ _____    ______ ____
ROOT
ATOM      1  O   UNL     1     153.972 140.807 102.321  0.00  0.00    +0.000 OA
ATOM      4  N   UNL     1     155.233 140.604 104.265  0.00  0.00    +0.000 N 
ATOM     11  C   UNL     1     155.054 140.711 102.896  0.00  0.00    +0.000 C 
ATOM     23  H   UNL     1     156.171 140.511 104.641  0.00  0.00    +0.000 HD
ENDROOT
BRANCH  11   8
ATOM      8  C   UNL     1     156.361 140.695 102.128  0.00  0.00    +0.000 C 
BRANCH   8   6
ATOM      6  C   UNL     1     156.983 139.300 102.059  0.00  0.00    +0.000 C 
BRANCH   6   5
ATOM      5  C   UNL     1     156.388 138.452 100.927  0.00  0.00    +0.000 C 
BRANCH   5   7
ATOM      7  C   UNL     1     155.407 137.383 101.419  0.00  0.00    +0.000 C 
BRANCH   7  10
ATOM     10  C   UNL     1     155.973 136.517 102.508  0.00  0.00    +0.000 C 
ATOM     12  C   UNL     1     155.507 136.502 103.766  0.00  0.00    +0.000 C 
BRANCH  12   9
ATOM      9  C   UNL     1     156.071 135.626 104.856  0.00  0.00    +0.000 C 
ATOM     15  C   UNL     1     156.691 134.366 104.252  0.00  0.00    +0.000 C 
ATOM     16  C   UNL     1     154.976 135.260 105.858  0.00  0.00    +0.000 C 
ENDBRANCH  12   9
ENDBRANCH   7  10
ENDBRANCH   5   7
ENDBRANCH   6   5
ENDBRANCH   8   6
ENDBRANCH  11   8
BRANCH   4  13
ATOM     13  C   UNL     1     154.136 140.590 105.205  0.00  0.00    +0.000 C 
BRANCH  13  14
ATOM     14  C   UNL     1     154.422 141.435 106.413  0.00  0.00    +0.000 A 
ATOM     17  C   UNL     1     155.057 142.669 106.266  0.00  0.00    +0.000 A 
ATOM     18  C   UNL     1     154.051 140.988 107.681  0.00  0.00    +0.000 A 
ATOM     19  C   UNL     1     155.321 143.455 107.387  0.00  0.00    +0.000 A 
ATOM     20  C   UNL     1     154.317 141.775 108.803  0.00  0.00    +0.000 A 
ATOM     21  C   UNL     1     154.951 143.008 108.656  0.00  0.00    +0.000 A 
BRANCH  19   2
ATOM      2  O   UNL     1     155.943 144.658 107.231  0.00  0.00    +0.000 OA
ATOM     22  C   UNL     1     157.312 144.633 106.833  0.00  0.00    +0.000 C 
ENDBRANCH  19   2
BRANCH  21   3
ATOM      3  O   UNL     1     155.205 143.766 109.759  0.00  0.00    +0.000 OA
ATOM     24  H   UNL     1     156.134 143.646 110.018  0.00  0.00    +0.000 HD
ENDBRANCH  21   3
ENDBRANCH  13  14
ENDBRANCH   4  13
TORSDOF 10
ENDMDL
MODEL 6
REMARK VINA RESULT:      -5.4     20.373     23.349
REMARK  Name = 1548943
REMARK  13 active torsions:
REMARK  status: ('A' for Active; 'I' for Inactive)
REMARK    1  A    between atoms: O_2  and  C_19
REMARK    2  A    between atoms: O_2  and  C_22
REMARK    3  A    between atoms: O_3  and  C_21
REMARK    4  A    between atoms: N_4  and  C_13
REMARK    5  A    between atoms: C_5  and  C_6
REMARK    6  A    between atoms: C_5  and  C_7
REMARK    7  A    between atoms: C_6  and  C_8
REMARK    8  A    between atoms: C_7  and  C_10
REMARK    9  A    between atoms: C_8  and  C_11
REMARK   10  A    between atoms: C_9  and  C_12
REMARK   11  A    between atoms: C_9  and  C_15
REMARK   12  A    between atoms: C_9  and  C_16
REMARK   13  A    between atoms: C_13  and  C_14
REMARK                            x       y       z     vdW  Elec       q    Type
REMARK                         _______ _______ _______ _____ _____    ______ ____
ROOT
ATOM      1  O   UNL     1     158.967 171.916 139.451  0.00  0.00    +0.000 OA
ATOM      4  N   UNL     1     160.708 171.278 140.855  0.00  0.00    +0.000 N 
ATOM     11  C   UNL     1     159.901 171.169 139.736  0.00  0.00    +0.000 C 
ATOM     23  H   UNL     1     161.444 170.597 141.009  0.00  0.00    +0.000 HD
ENDROOT
BRANCH  11   8
ATOM      8  C   UNL     1     160.275 169.997 138.850  0.00  0.00    +0.000 C 
BRANCH   8   6
ATOM      6  C   UNL     1     159.059 169.183 138.409  0.00  0.00    +0.000 C 
BRANCH   6   5
ATOM      5  C   UNL     1     158.656 168.128 139.447  0.00  0.00    +0.000 C 
BRANCH   5   7
ATOM      7  C   UNL     1     157.387 168.495 140.225  0.00  0.00    +0.000 C 
BRANCH   7  10
ATOM     10  C   UNL     1     156.398 169.277 139.410  0.00  0.00    +0.000 C 
ATOM     12  C   UNL     1     155.383 168.719 138.734  0.00  0.00    +0.000 C 
BRANCH  12   9
ATOM      9  C   UNL     1     154.386 169.507 137.922  0.00  0.00    +0.000 C 
ATOM     15  C   UNL     1     154.952 170.886 137.585  0.00  0.00    +0.000 C 
ATOM     16  C   UNL     1     153.069 169.639 138.687  0.00  0.00    +0.000 C 
ENDBRANCH  12   9
ENDBRANCH   7  10
ENDBRANCH   5   7
ENDBRANCH   6   5
ENDBRANCH   8   6
ENDBRANCH  11   8
BRANCH   4  13
ATOM     13  C   UNL     1     160.540 172.311 141.851  0.00  0.00    +0.000 C 
BRANCH  13  14
ATOM     14  C   UNL     1     159.894 171.787 143.100  0.00  0.00    +0.000 A 
ATOM     17  C   UNL     1     158.510 171.612 143.149  0.00  0.00    +0.000 A 
ATOM     18  C   UNL     1     160.676 171.473 144.212  0.00  0.00    +0.000 A 
ATOM     19  C   UNL     1     157.910 171.124 144.309  0.00  0.00    +0.000 A 
ATOM     20  C   UNL     1     160.074 170.985 145.373  0.00  0.00    +0.000 A 
ATOM     21  C   UNL     1     158.692 170.810 145.421  0.00  0.00    +0.000 A 
BRANCH  19   2
ATOM      2  O   UNL     1     156.557 170.958 144.345  0.00  0.00    +0.000 OA
ATOM     22  C   UNL     1     155.868 170.984 143.096  0.00  0.00    +0.000 C 
ENDBRANCH  19   2
BRANCH  21   3
ATOM      3  O   UNL     1     158.117 170.334 146.560  0.00  0.00    +0.000 OA
ATOM     24  H   UNL     1     157.576 171.036 146.960  0.00  0.00    +0.000 HD
ENDBRANCH  21   3
ENDBRANCH  13  14
ENDBRANCH   4  13
TORSDOF 10
ENDMDL
MODEL 7
REMARK VINA RESULT:      -5.3     19.810     21.986
REMARK  Name = 1548943
REMARK  13 active torsions:
REMARK  status: ('A' for Active; 'I' for Inactive)
REMARK    1  A    between atoms: O_2  and  C_19
REMARK    2  A    between atoms: O_2  and  C_22
REMARK    3  A    between atoms: O_3  and  C_21
REMARK    4  A    between atoms: N_4  and  C_13
REMARK    5  A    between atoms: C_5  and  C_6
REMARK    6  A    between atoms: C_5  and  C_7
REMARK    7  A    between atoms: C_6  and  C_8
REMARK    8  A    between atoms: C_7  and  C_10
REMARK    9  A    between atoms: C_8  and  C_11
REMARK   10  A    between atoms: C_9  and  C_12
REMARK   11  A    between atoms: C_9  and  C_15
REMARK   12  A    between atoms: C_9  and  C_16
REMARK   13  A    between atoms: C_13  and  C_14
REMARK                            x       y       z     vdW  Elec       q    Type
REMARK                         _______ _______ _______ _____ _____    ______ ____
ROOT
ATOM      1  O   UNL     1     173.335 152.089 123.506  0.00  0.00    +0.000 OA
ATOM      4  N   UNL     1     174.226 154.220 123.780  0.00  0.00    +0.000 N 
ATOM     11  C   UNL     1     174.196 152.847 123.950  0.00  0.00    +0.000 C 
ATOM     23  H   UNL     1     174.972 154.761 124.205  0.00  0.00    +0.000 HD
ENDROOT
BRANCH  11   8
ATOM      8  C   UNL     1     175.359 152.328 124.772  0.00  0.00    +0.000 C 
BRANCH   8   6
ATOM      6  C   UNL     1     176.648 153.111 124.522  0.00  0.00    +0.000 C 
BRANCH   6   5
ATOM      5  C   UNL     1     177.442 153.354 125.812  0.00  0.00    +0.000 C 
BRANCH   5   7
ATOM      7  C   UNL     1     178.339 154.595 125.748  0.00  0.00    +0.000 C 
BRANCH   7  10
ATOM     10  C   UNL     1     179.786 154.294 126.015  0.00  0.00    +0.000 C 
ATOM     12  C   UNL     1     180.577 155.060 126.782  0.00  0.00    +0.000 C 
BRANCH  12   9
ATOM      9  C   UNL     1     182.028 154.752 127.055  0.00  0.00    +0.000 C 
ATOM     15  C   UNL     1     182.344 153.309 126.663  0.00  0.00    +0.000 C 
ATOM     16  C   UNL     1     182.348 154.991 128.531  0.00  0.00    +0.000 C 
ENDBRANCH  12   9
ENDBRANCH   7  10
ENDBRANCH   5   7
ENDBRANCH   6   5
ENDBRANCH   8   6
ENDBRANCH  11   8
BRANCH   4  13
ATOM     13  C   UNL     1     173.219 154.946 123.040  0.00  0.00    +0.000 C 
BRANCH  13  14
ATOM     14  C   UNL     1     173.418 156.431 123.131  0.00  0.00    +0.000 A 
ATOM     17  C   UNL     1     172.395 157.297 122.745  0.00  0.00    +0.000 A 
ATOM     18  C   UNL     1     174.626 156.946 123.603  0.00  0.00    +0.000 A 
ATOM     19  C   UNL     1     172.579 158.677 122.830  0.00  0.00    +0.000 A 
ATOM     20  C   UNL     1     174.810 158.327 123.688  0.00  0.00    +0.000 A 
ATOM     21  C   UNL     1     173.787 159.191 123.302  0.00  0.00    +0.000 A 
BRANCH  19   2
ATOM      2  O   UNL     1     171.572 159.512 122.449  0.00  0.00    +0.000 OA
ATOM     22  C   UNL     1     170.639 159.009 121.496  0.00  0.00    +0.000 C 
ENDBRANCH  19   2
BRANCH  21   3
ATOM      3  O   UNL     1     173.980 160.537 123.389  0.00  0.00    +0.000 OA
ATOM     24  H   UNL     1     174.442 160.738 124.221  0.00  0.00    +0.000 HD
ENDBRANCH  21   3
ENDBRANCH  13  14
ENDBRANCH   4  13
TORSDOF 10
ENDMDL
MODEL 8
REMARK VINA RESULT:      -5.2     29.565     32.689
REMARK  Name = 1548943
REMARK  13 active torsions:
REMARK  status: ('A' for Active; 'I' for Inactive)
REMARK    1  A    between atoms: O_2  and  C_19
REMARK    2  A    between atoms: O_2  and  C_22
REMARK    3  A    between atoms: O_3  and  C_21
REMARK    4  A    between atoms: N_4  and  C_13
REMARK    5  A    between atoms: C_5  and  C_6
REMARK    6  A    between atoms: C_5  and  C_7
REMARK    7  A    between atoms: C_6  and  C_8
REMARK    8  A    between atoms: C_7  and  C_10
REMARK    9  A    between atoms: C_8  and  C_11
REMARK   10  A    between atoms: C_9  and  C_12
REMARK   11  A    between atoms: C_9  and  C_15
REMARK   12  A    between atoms: C_9  and  C_16
REMARK   13  A    between atoms: C_13  and  C_14
REMARK                            x       y       z     vdW  Elec       q    Type
REMARK                         _______ _______ _______ _____ _____    ______ ____
ROOT
ATOM      1  O   UNL     1     194.513 154.623 128.152  0.00  0.00    +0.000 OA
ATOM      4  N   UNL     1     193.409 154.620 126.105  0.00  0.00    +0.000 N 
ATOM     11  C   UNL     1     193.676 155.088 127.380  0.00  0.00    +0.000 C 
ATOM     23  H   UNL     1     192.683 155.064 125.551  0.00  0.00    +0.000 HD
ENDROOT
BRANCH  11   8
ATOM      8  C   UNL     1     192.811 156.271 127.768  0.00  0.00    +0.000 C 
BRANCH   8   6
ATOM      6  C   UNL     1     191.640 155.871 128.666  0.00  0.00    +0.000 C 
BRANCH   6   5
ATOM      5  C   UNL     1     190.428 155.386 127.860  0.00  0.00    +0.000 C 
BRANCH   5   7
ATOM      7  C   UNL     1     190.122 153.897 128.061  0.00  0.00    +0.000 C 
BRANCH   7  10
ATOM     10  C   UNL     1     190.988 153.250 129.103  0.00  0.00    +0.000 C 
ATOM     12  C   UNL     1     191.387 151.970 129.051  0.00  0.00    +0.000 C 
BRANCH  12   9
ATOM      9  C   UNL     1     192.263 151.324 130.094  0.00  0.00    +0.000 C 
ATOM     15  C   UNL     1     193.702 151.821 129.957  0.00  0.00    +0.000 C 
ATOM     16  C   UNL     1     192.205 149.802 129.962  0.00  0.00    +0.000 C 
ENDBRANCH  12   9
ENDBRANCH   7  10
ENDBRANCH   5   7
ENDBRANCH   6   5
ENDBRANCH   8   6
ENDBRANCH  11   8
BRANCH   4  13
ATOM     13  C   UNL     1     194.100 153.497 125.515  0.00  0.00    +0.000 C 
BRANCH  13  14
ATOM     14  C   UNL     1     193.355 152.210 125.720  0.00  0.00    +0.000 A 
ATOM     17  C   UNL     1     194.003 151.110 126.285  0.00  0.00    +0.000 A 
ATOM     18  C   UNL     1     192.014 152.112 125.347  0.00  0.00    +0.000 A 
ATOM     19  C   UNL     1     193.311 149.915 126.476  0.00  0.00    +0.000 A 
ATOM     20  C   UNL     1     191.322 150.916 125.538  0.00  0.00    +0.000 A 
ATOM     21  C   UNL     1     191.970 149.818 126.102  0.00  0.00    +0.000 A 
BRANCH  19   2
ATOM      2  O   UNL     1     193.955 148.849 127.028  0.00  0.00    +0.000 OA
ATOM     22  C   UNL     1     195.157 149.118 127.746  0.00  0.00    +0.000 C 
ENDBRANCH  19   2
BRANCH  21   3
ATOM      3  O   UNL     1     191.283 148.655 126.283  0.00  0.00    +0.000 OA
ATOM     24  H   UNL     1     191.474 148.310 127.171  0.00  0.00    +0.000 HD
ENDBRANCH  21   3
ENDBRANCH  13  14
ENDBRANCH   4  13
TORSDOF 10
ENDMDL
MODEL 9
REMARK VINA RESULT:      -5.2     20.069     23.970
REMARK  Name = 1548943
REMARK  13 active torsions:
REMARK  status: ('A' for Active; 'I' for Inactive)
REMARK    1  A    between atoms: O_2  and  C_19
REMARK    2  A    between atoms: O_2  and  C_22
REMARK    3  A    between atoms: O_3  and  C_21
REMARK    4  A    between atoms: N_4  and  C_13
REMARK    5  A    between atoms: C_5  and  C_6
REMARK    6  A    between atoms: C_5  and  C_7
REMARK    7  A    between atoms: C_6  and  C_8
REMARK    8  A    between atoms: C_7  and  C_10
REMARK    9  A    between atoms: C_8  and  C_11
REMARK   10  A    between atoms: C_9  and  C_12
REMARK   11  A    between atoms: C_9  and  C_15
REMARK   12  A    between atoms: C_9  and  C_16
REMARK   13  A    between atoms: C_13  and  C_14
REMARK                            x       y       z     vdW  Elec       q    Type
REMARK                         _______ _______ _______ _____ _____    ______ ____
ROOT
ATOM      1  O   UNL     1     160.427 171.199 143.158  0.00  0.00    +0.000 OA
ATOM      4  N   UNL     1     159.445 169.146 142.680  0.00  0.00    +0.000 N 
ATOM     11  C   UNL     1     159.787 170.207 143.501  0.00  0.00    +0.000 C 
ATOM     23  H   UNL     1     158.929 168.362 143.066  0.00  0.00    +0.000 HD
ENDROOT
BRANCH  11   8
ATOM      8  C   UNL     1     159.291 170.037 144.923  0.00  0.00    +0.000 C 
BRANCH   8   6
ATOM      6  C   UNL     1     160.217 170.692 145.948  0.00  0.00    +0.000 C 
BRANCH   6   5
ATOM      5  C   UNL     1     159.446 171.517 146.986  0.00  0.00    +0.000 C 
BRANCH   5   7
ATOM      7  C   UNL     1     159.273 172.987 146.587  0.00  0.00    +0.000 C 
BRANCH   7  10
ATOM     10  C   UNL     1     160.574 173.677 146.291  0.00  0.00    +0.000 C 
ATOM     12  C   UNL     1     161.433 174.086 147.238  0.00  0.00    +0.000 C 
BRANCH  12   9
ATOM      9  C   UNL     1     162.742 174.771 146.939  0.00  0.00    +0.000 C 
ATOM     15  C   UNL     1     163.871 173.743 146.867  0.00  0.00    +0.000 C 
ATOM     16  C   UNL     1     163.041 175.824 148.006  0.00  0.00    +0.000 C 
ENDBRANCH  12   9
ENDBRANCH   7  10
ENDBRANCH   5   7
ENDBRANCH   6   5
ENDBRANCH   8   6
ENDBRANCH  11   8
BRANCH   4  13
ATOM     13  C   UNL     1     159.812 169.077 141.285  0.00  0.00    +0.000 C 
BRANCH  13  14
ATOM     14  C   UNL     1     158.701 169.543 140.389  0.00  0.00    +0.000 A 
ATOM     17  C   UNL     1     158.974 170.419 139.337  0.00  0.00    +0.000 A 
ATOM     18  C   UNL     1     157.396 169.100 140.607  0.00  0.00    +0.000 A 
ATOM     19  C   UNL     1     157.942 170.850 138.504  0.00  0.00    +0.000 A 
ATOM     20  C   UNL     1     156.364 169.533 139.774  0.00  0.00    +0.000 A 
ATOM     21  C   UNL     1     156.637 170.408 138.723  0.00  0.00    +0.000 A 
BRANCH  19   2
ATOM      2  O   UNL     1     158.221 171.706 137.481  0.00  0.00    +0.000 OA
ATOM     22  C   UNL     1     158.643 173.022 137.833  0.00  0.00    +0.000 C 
ENDBRANCH  19   2
BRANCH  21   3
ATOM      3  O   UNL     1     155.620 170.823 137.917  0.00  0.00    +0.000 OA
ATOM     24  H   UNL     1     155.755 170.460 137.025  0.00  0.00    +0.000 HD
ENDBRANCH  21   3
ENDBRANCH  13  14
ENDBRANCH   4  13
TORSDOF 10
ENDMDL
