MODEL 1
REMARK VINA RESULT:      -5.4      0.000      0.000
REMARK  Name = 1548943
REMARK  13 active torsions:
REMARK  status: ('A' for Active; 'I' for Inactive)
REMARK    1  A    between atoms: O_2  and  C_19
REMARK    2  A    between atoms: O_2  and  C_22
REMARK    3  A    between atoms: O_3  and  C_21
REMARK    4  A    between atoms: N_4  and  C_13
REMARK    5  A    between atoms: C_5  and  C_6
REMARK    6  A    between atoms: C_5  and  C_7
REMARK    7  A    between atoms: C_6  and  C_8
REMARK    8  A    between atoms: C_7  and  C_10
REMARK    9  A    between atoms: C_8  and  C_11
REMARK   10  A    between atoms: C_9  and  C_12
REMARK   11  A    between atoms: C_9  and  C_15
REMARK   12  A    between atoms: C_9  and  C_16
REMARK   13  A    between atoms: C_13  and  C_14
REMARK                            x       y       z     vdW  Elec       q    Type
REMARK                         _______ _______ _______ _____ _____    ______ ____
ROOT
ATOM      1  O   UNL     1       1.149 -17.276   3.489  0.00  0.00    +0.000 OA
ATOM      4  N   UNL     1       1.648 -15.046   3.057  0.00  0.00    +0.000 N 
ATOM     11  C   UNL     1       1.012 -16.077   3.726  0.00  0.00    +0.000 C 
ATOM     23  H   UNL     1       1.452 -14.084   3.317  0.00  0.00    +0.000 HD
ENDROOT
BRANCH  11   8
ATOM      8  C   UNL     1       0.085 -15.588   4.821  0.00  0.00    +0.000 C 
BRANCH   8   6
ATOM      6  C   UNL     1       0.569 -15.982   6.217  0.00  0.00    +0.000 C 
BRANCH   6   5
ATOM      5  C   UNL     1       0.033 -17.351   6.654  0.00  0.00    +0.000 C 
BRANCH   5   7
ATOM      7  C   UNL     1       1.104 -18.250   7.282  0.00  0.00    +0.000 C 
BRANCH   7  10
ATOM     10  C   UNL     1       2.478 -18.011   6.725  0.00  0.00    +0.000 C 
ATOM     12  C   UNL     1       3.217 -18.961   6.133  0.00  0.00    +0.000 C 
BRANCH  12   9
ATOM      9  C   UNL     1       4.594 -18.718   5.568  0.00  0.00    +0.000 C 
ATOM     15  C   UNL     1       4.507 -17.819   4.335  0.00  0.00    +0.000 C 
ATOM     16  C   UNL     1       5.263 -20.047   5.218  0.00  0.00    +0.000 C 
ENDBRANCH  12   9
ENDBRANCH   7  10
ENDBRANCH   5   7
ENDBRANCH   6   5
ENDBRANCH   8   6
ENDBRANCH  11   8
BRANCH   4  13
ATOM     13  C   UNL     1       2.573 -15.263   1.969  0.00  0.00    +0.000 C 
BRANCH  13  14
ATOM     14  C   UNL     1       1.918 -15.076   0.630  0.00  0.00    +0.000 A 
ATOM     17  C   UNL     1       2.290 -14.006  -0.185  0.00  0.00    +0.000 A 
ATOM     18  C   UNL     1       0.939 -15.972   0.201  0.00  0.00    +0.000 A 
ATOM     19  C   UNL     1       1.683 -13.833  -1.428  0.00  0.00    +0.000 A 
ATOM     20  C   UNL     1       0.332 -15.798  -1.043  0.00  0.00    +0.000 A 
ATOM     21  C   UNL     1       0.704 -14.729  -1.858  0.00  0.00    +0.000 A 
BRANCH  19   2
ATOM      2  O   UNL     1       2.054 -12.783  -2.215  0.00  0.00    +0.000 OA
ATOM     22  C   UNL     1       2.352 -11.554  -1.557  0.00  0.00    +0.000 C 
ENDBRANCH  19   2
BRANCH  21   3
ATOM      3  O   UNL     1       0.102 -14.570  -3.070  0.00  0.00    +0.000 OA
ATOM     24  H   UNL     1       0.313 -13.685  -3.413  0.00  0.00    +0.000 HD
ENDBRANCH  21   3
ENDBRANCH  13  14
ENDBRANCH   4  13
TORSDOF 10
ENDMDL
MODEL 2
REMARK VINA RESULT:      -5.2     15.786     17.078
REMARK  Name = 1548943
REMARK  13 active torsions:
REMARK  status: ('A' for Active; 'I' for Inactive)
REMARK    1  A    between atoms: O_2  and  C_19
REMARK    2  A    between atoms: O_2  and  C_22
REMARK    3  A    between atoms: O_3  and  C_21
REMARK    4  A    between atoms: N_4  and  C_13
REMARK    5  A    between atoms: C_5  and  C_6
REMARK    6  A    between atoms: C_5  and  C_7
REMARK    7  A    between atoms: C_6  and  C_8
REMARK    8  A    between atoms: C_7  and  C_10
REMARK    9  A    between atoms: C_8  and  C_11
REMARK   10  A    between atoms: C_9  and  C_12
REMARK   11  A    between atoms: C_9  and  C_15
REMARK   12  A    between atoms: C_9  and  C_16
REMARK   13  A    between atoms: C_13  and  C_14
REMARK                            x       y       z     vdW  Elec       q    Type
REMARK                         _______ _______ _______ _____ _____    ______ ____
ROOT
ATOM      1  O   UNL     1     -13.985 -10.240   5.207  0.00  0.00    +0.000 OA
ATOM      4  N   UNL     1     -12.360  -8.746   4.475  0.00  0.00    +0.000 N 
ATOM     11  C   UNL     1     -13.199  -9.839   4.349  0.00  0.00    +0.000 C 
ATOM     23  H   UNL     1     -11.733  -8.507   3.713  0.00  0.00    +0.000 HD
ENDROOT
BRANCH  11   8
ATOM      8  C   UNL     1     -13.064 -10.537   3.011  0.00  0.00    +0.000 C 
BRANCH   8   6
ATOM      6  C   UNL     1     -12.280  -9.708   1.994  0.00  0.00    +0.000 C 
BRANCH   6   5
ATOM      5  C   UNL     1     -12.610 -10.096   0.547  0.00  0.00    +0.000 C 
BRANCH   5   7
ATOM      7  C   UNL     1     -13.140 -11.528   0.409  0.00  0.00    +0.000 C 
BRANCH   7  10
ATOM     10  C   UNL     1     -13.013 -12.074  -0.985  0.00  0.00    +0.000 C 
ATOM     12  C   UNL     1     -13.175 -11.334  -2.092  0.00  0.00    +0.000 C 
BRANCH  12   9
ATOM      9  C   UNL     1     -13.041 -11.882  -3.490  0.00  0.00    +0.000 C 
ATOM     15  C   UNL     1     -13.861 -11.040  -4.468  0.00  0.00    +0.000 C 
ATOM     16  C   UNL     1     -13.491 -13.342  -3.530  0.00  0.00    +0.000 C 
ENDBRANCH  12   9
ENDBRANCH   7  10
ENDBRANCH   5   7
ENDBRANCH   6   5
ENDBRANCH   8   6
ENDBRANCH  11   8
BRANCH   4  13
ATOM     13  C   UNL     1     -12.304  -7.925   5.662  0.00  0.00    +0.000 C 
BRANCH  13  14
ATOM     14  C   UNL     1     -11.139  -6.977   5.635  0.00  0.00    +0.000 A 
ATOM     17  C   UNL     1     -10.549  -6.563   6.830  0.00  0.00    +0.000 A 
ATOM     18  C   UNL     1     -10.647  -6.511   4.416  0.00  0.00    +0.000 A 
ATOM     19  C   UNL     1      -9.467  -5.684   6.804  0.00  0.00    +0.000 A 
ATOM     20  C   UNL     1      -9.565  -5.630   4.391  0.00  0.00    +0.000 A 
ATOM     21  C   UNL     1      -8.975  -5.217   5.585  0.00  0.00    +0.000 A 
BRANCH  19   2
ATOM      2  O   UNL     1      -8.899  -5.286   7.978  0.00  0.00    +0.000 OA
ATOM     22  C   UNL     1      -9.014  -6.175   9.087  0.00  0.00    +0.000 C 
ENDBRANCH  19   2
BRANCH  21   3
ATOM      3  O   UNL     1      -7.920  -4.357   5.547  0.00  0.00    +0.000 OA
ATOM     24  H   UNL     1      -8.082  -3.687   4.862  0.00  0.00    +0.000 HD
ENDBRANCH  21   3
ENDBRANCH  13  14
ENDBRANCH   4  13
TORSDOF 10
ENDMDL
MODEL 3
REMARK VINA RESULT:      -5.1     14.303     16.428
REMARK  Name = 1548943
REMARK  13 active torsions:
REMARK  status: ('A' for Active; 'I' for Inactive)
REMARK    1  A    between atoms: O_2  and  C_19
REMARK    2  A    between atoms: O_2  and  C_22
REMARK    3  A    between atoms: O_3  and  C_21
REMARK    4  A    between atoms: N_4  and  C_13
REMARK    5  A    between atoms: C_5  and  C_6
REMARK    6  A    between atoms: C_5  and  C_7
REMARK    7  A    between atoms: C_6  and  C_8
REMARK    8  A    between atoms: C_7  and  C_10
REMARK    9  A    between atoms: C_8  and  C_11
REMARK   10  A    between atoms: C_9  and  C_12
REMARK   11  A    between atoms: C_9  and  C_15
REMARK   12  A    between atoms: C_9  and  C_16
REMARK   13  A    between atoms: C_13  and  C_14
REMARK                            x       y       z     vdW  Elec       q    Type
REMARK                         _______ _______ _______ _____ _____    ______ ____
ROOT
ATOM      1  O   UNL     1     -10.556  -5.918   4.524  0.00  0.00    +0.000 OA
ATOM      4  N   UNL     1     -12.658  -6.770   5.038  0.00  0.00    +0.000 N 
ATOM     11  C   UNL     1     -11.504  -6.052   5.296  0.00  0.00    +0.000 C 
ATOM     23  H   UNL     1     -13.377  -6.836   5.752  0.00  0.00    +0.000 HD
ENDROOT
BRANCH  11   8
ATOM      8  C   UNL     1     -11.499  -5.418   6.674  0.00  0.00    +0.000 C 
BRANCH   8   6
ATOM      6  C   UNL     1     -10.144  -4.808   7.033  0.00  0.00    +0.000 C 
BRANCH   6   5
ATOM      5  C   UNL     1      -9.418  -5.605   8.125  0.00  0.00    +0.000 C 
BRANCH   5   7
ATOM      7  C   UNL     1      -9.948  -7.034   8.287  0.00  0.00    +0.000 C 
BRANCH   7  10
ATOM     10  C   UNL     1     -10.444  -7.328   9.674  0.00  0.00    +0.000 C 
ATOM     12  C   UNL     1     -11.708  -7.682   9.953  0.00  0.00    +0.000 C 
BRANCH  12   9
ATOM      9  C   UNL     1     -12.202  -7.984  11.345  0.00  0.00    +0.000 C 
ATOM     15  C   UNL     1     -11.374  -7.218  12.377  0.00  0.00    +0.000 C 
ATOM     16  C   UNL     1     -12.138  -9.488  11.613  0.00  0.00    +0.000 C 
ENDBRANCH  12   9
ENDBRANCH   7  10
ENDBRANCH   5   7
ENDBRANCH   6   5
ENDBRANCH   8   6
ENDBRANCH  11   8
BRANCH   4  13
ATOM     13  C   UNL     1     -12.891  -7.470   3.796  0.00  0.00    +0.000 C 
BRANCH  13  14
ATOM     14  C   UNL     1     -12.178  -8.791   3.754  0.00  0.00    +0.000 A 
ATOM     17  C   UNL     1     -11.814  -9.425   4.942  0.00  0.00    +0.000 A 
ATOM     18  C   UNL     1     -11.880  -9.385   2.527  0.00  0.00    +0.000 A 
ATOM     19  C   UNL     1     -11.153 -10.653   4.903  0.00  0.00    +0.000 A 
ATOM     20  C   UNL     1     -11.218 -10.613   2.489  0.00  0.00    +0.000 A 
ATOM     21  C   UNL     1     -10.855 -11.246   3.676  0.00  0.00    +0.000 A 
BRANCH  19   2
ATOM      2  O   UNL     1     -10.803 -11.262   6.071  0.00  0.00    +0.000 OA
ATOM     22  C   UNL     1     -10.341 -10.423   7.127  0.00  0.00    +0.000 C 
ENDBRANCH  19   2
BRANCH  21   3
ATOM      3  O   UNL     1     -10.209 -12.445   3.626  0.00  0.00    +0.000 OA
ATOM     24  H   UNL     1      -9.260 -12.287   3.485  0.00  0.00    +0.000 HD
ENDBRANCH  21   3
ENDBRANCH  13  14
ENDBRANCH   4  13
TORSDOF 10
ENDMDL
MODEL 4
REMARK VINA RESULT:      -4.8     19.333     21.936
REMARK  Name = 1548943
REMARK  13 active torsions:
REMARK  status: ('A' for Active; 'I' for Inactive)
REMARK    1  A    between atoms: O_2  and  C_19
REMARK    2  A    between atoms: O_2  and  C_22
REMARK    3  A    between atoms: O_3  and  C_21
REMARK    4  A    between atoms: N_4  and  C_13
REMARK    5  A    between atoms: C_5  and  C_6
REMARK    6  A    between atoms: C_5  and  C_7
REMARK    7  A    between atoms: C_6  and  C_8
REMARK    8  A    between atoms: C_7  and  C_10
REMARK    9  A    between atoms: C_8  and  C_11
REMARK   10  A    between atoms: C_9  and  C_12
REMARK   11  A    between atoms: C_9  and  C_15
REMARK   12  A    between atoms: C_9  and  C_16
REMARK   13  A    between atoms: C_13  and  C_14
REMARK                            x       y       z     vdW  Elec       q    Type
REMARK                         _______ _______ _______ _____ _____    ______ ____
ROOT
ATOM      1  O   UNL     1     -13.182  -4.499  15.098  0.00  0.00    +0.000 OA
ATOM      4  N   UNL     1     -11.657  -3.041  14.118  0.00  0.00    +0.000 N 
ATOM     11  C   UNL     1     -12.132  -4.285  14.494  0.00  0.00    +0.000 C 
ATOM     23  H   UNL     1     -10.766  -2.969  13.637  0.00  0.00    +0.000 HD
ENDROOT
BRANCH  11   8
ATOM      8  C   UNL     1     -11.207  -5.417  14.089  0.00  0.00    +0.000 C 
BRANCH   8   6
ATOM      6  C   UNL     1      -9.731  -5.030  14.185  0.00  0.00    +0.000 C 
BRANCH   6   5
ATOM      5  C   UNL     1      -9.032  -5.062  12.820  0.00  0.00    +0.000 C 
BRANCH   5   7
ATOM      7  C   UNL     1      -7.874  -6.065  12.755  0.00  0.00    +0.000 C 
BRANCH   7  10
ATOM     10  C   UNL     1      -7.389  -6.319  11.356  0.00  0.00    +0.000 C 
ATOM     12  C   UNL     1      -8.030  -5.894  10.257  0.00  0.00    +0.000 C 
BRANCH  12   9
ATOM      9  C   UNL     1      -7.539  -6.143   8.853  0.00  0.00    +0.000 C 
ATOM     15  C   UNL     1      -8.467  -5.471   7.842  0.00  0.00    +0.000 C 
ATOM     16  C   UNL     1      -7.449  -7.645   8.585  0.00  0.00    +0.000 C 
ENDBRANCH  12   9
ENDBRANCH   7  10
ENDBRANCH   5   7
ENDBRANCH   6   5
ENDBRANCH   8   6
ENDBRANCH  11   8
BRANCH   4  13
ATOM     13  C   UNL     1     -12.360  -1.810  14.399  0.00  0.00    +0.000 C 
BRANCH  13  14
ATOM     14  C   UNL     1     -11.678  -1.007  15.470  0.00  0.00    +0.000 A 
ATOM     17  C   UNL     1     -10.399  -1.363  15.900  0.00  0.00    +0.000 A 
ATOM     18  C   UNL     1     -12.323   0.094  16.034  0.00  0.00    +0.000 A 
ATOM     19  C   UNL     1      -9.765  -0.616  16.893  0.00  0.00    +0.000 A 
ATOM     20  C   UNL     1     -11.688   0.839  17.028  0.00  0.00    +0.000 A 
ATOM     21  C   UNL     1     -10.410   0.485  17.457  0.00  0.00    +0.000 A 
BRANCH  19   2
ATOM      2  O   UNL     1      -8.516  -0.974  17.305  0.00  0.00    +0.000 OA
ATOM     22  C   UNL     1      -8.146  -2.341  17.142  0.00  0.00    +0.000 C 
ENDBRANCH  19   2
BRANCH  21   3
ATOM      3  O   UNL     1      -9.802   1.220  18.429  0.00  0.00    +0.000 OA
ATOM     24  H   UNL     1     -10.018   2.159  18.298  0.00  0.00    +0.000 HD
ENDBRANCH  21   3
ENDBRANCH  13  14
ENDBRANCH   4  13
TORSDOF 10
ENDMDL
MODEL 5
REMARK VINA RESULT:      -4.8      6.648      9.863
REMARK  Name = 1548943
REMARK  13 active torsions:
REMARK  status: ('A' for Active; 'I' for Inactive)
REMARK    1  A    between atoms: O_2  and  C_19
REMARK    2  A    between atoms: O_2  and  C_22
REMARK    3  A    between atoms: O_3  and  C_21
REMARK    4  A    between atoms: N_4  and  C_13
REMARK    5  A    between atoms: C_5  and  C_6
REMARK    6  A    between atoms: C_5  and  C_7
REMARK    7  A    between atoms: C_6  and  C_8
REMARK    8  A    between atoms: C_7  and  C_10
REMARK    9  A    between atoms: C_8  and  C_11
REMARK   10  A    between atoms: C_9  and  C_12
REMARK   11  A    between atoms: C_9  and  C_15
REMARK   12  A    between atoms: C_9  and  C_16
REMARK   13  A    between atoms: C_13  and  C_14
REMARK                            x       y       z     vdW  Elec       q    Type
REMARK                         _______ _______ _______ _____ _____    ______ ____
ROOT
ATOM      1  O   UNL     1       0.580 -17.595  -6.258  0.00  0.00    +0.000 OA
ATOM      4  N   UNL     1       1.449 -15.515  -6.831  0.00  0.00    +0.000 N 
ATOM     11  C   UNL     1       0.642 -16.376  -6.108  0.00  0.00    +0.000 C 
ATOM     23  H   UNL     1       1.414 -14.518  -6.642  0.00  0.00    +0.000 HD
ENDROOT
BRANCH  11   8
ATOM      8  C   UNL     1      -0.203 -15.662  -5.071  0.00  0.00    +0.000 C 
BRANCH   8   6
ATOM      6  C   UNL     1       0.277 -15.923  -3.643  0.00  0.00    +0.000 C 
BRANCH   6   5
ATOM      5  C   UNL     1       0.098 -14.699  -2.736  0.00  0.00    +0.000 C 
BRANCH   5   7
ATOM      7  C   UNL     1       0.657 -14.903  -1.323  0.00  0.00    +0.000 C 
BRANCH   7  10
ATOM     10  C   UNL     1       1.594 -13.810  -0.894  0.00  0.00    +0.000 C 
ATOM     12  C   UNL     1       1.384 -12.509  -1.144  0.00  0.00    +0.000 C 
BRANCH  12   9
ATOM      9  C   UNL     1       2.321 -11.412  -0.706  0.00  0.00    +0.000 C 
ATOM     15  C   UNL     1       2.354 -10.298  -1.752  0.00  0.00    +0.000 C 
ATOM     16  C   UNL     1       3.723 -11.977  -0.477  0.00  0.00    +0.000 C 
ENDBRANCH  12   9
ENDBRANCH   7  10
ENDBRANCH   5   7
ENDBRANCH   6   5
ENDBRANCH   8   6
ENDBRANCH  11   8
BRANCH   4  13
ATOM     13  C   UNL     1       2.338 -15.961  -7.879  0.00  0.00    +0.000 C 
BRANCH  13  14
ATOM     14  C   UNL     1       1.739 -15.767  -9.242  0.00  0.00    +0.000 A 
ATOM     17  C   UNL     1       1.860 -14.537  -9.890  0.00  0.00    +0.000 A 
ATOM     18  C   UNL     1       1.061 -16.818  -9.862  0.00  0.00    +0.000 A 
ATOM     19  C   UNL     1       1.305 -14.358 -11.156  0.00  0.00    +0.000 A 
ATOM     20  C   UNL     1       0.505 -16.637 -11.129  0.00  0.00    +0.000 A 
ATOM     21  C   UNL     1       0.627 -15.408 -11.776  0.00  0.00    +0.000 A 
BRANCH  19   2
ATOM      2  O   UNL     1       1.430 -13.152 -11.778  0.00  0.00    +0.000 OA
ATOM     22  C   UNL     1       2.588 -12.956 -12.586  0.00  0.00    +0.000 C 
ENDBRANCH  19   2
BRANCH  21   3
ATOM      3  O   UNL     1       0.079 -15.245 -13.012  0.00  0.00    +0.000 OA
ATOM     24  H   UNL     1      -0.501 -14.465 -13.001  0.00  0.00    +0.000 HD
ENDBRANCH  21   3
ENDBRANCH  13  14
ENDBRANCH   4  13
TORSDOF 10
ENDMDL
MODEL 6
REMARK VINA RESULT:      -4.8     17.120     18.481
REMARK  Name = 1548943
REMARK  13 active torsions:
REMARK  status: ('A' for Active; 'I' for Inactive)
REMARK    1  A    between atoms: O_2  and  C_19
REMARK    2  A    between atoms: O_2  and  C_22
REMARK    3  A    between atoms: O_3  and  C_21
REMARK    4  A    between atoms: N_4  and  C_13
REMARK    5  A    between atoms: C_5  and  C_6
REMARK    6  A    between atoms: C_5  and  C_7
REMARK    7  A    between atoms: C_6  and  C_8
REMARK    8  A    between atoms: C_7  and  C_10
REMARK    9  A    between atoms: C_8  and  C_11
REMARK   10  A    between atoms: C_9  and  C_12
REMARK   11  A    between atoms: C_9  and  C_15
REMARK   12  A    between atoms: C_9  and  C_16
REMARK   13  A    between atoms: C_13  and  C_14
REMARK                            x       y       z     vdW  Elec       q    Type
REMARK                         _______ _______ _______ _____ _____    ______ ____
ROOT
ATOM      1  O   UNL     1       7.919 -11.912 -16.132  0.00  0.00    +0.000 OA
ATOM      4  N   UNL     1       7.384 -11.905 -13.869  0.00  0.00    +0.000 N 
ATOM     11  C   UNL     1       8.064 -12.346 -14.991  0.00  0.00    +0.000 C 
ATOM     23  H   UNL     1       7.563 -12.343 -12.971  0.00  0.00    +0.000 HD
ENDROOT
BRANCH  11   8
ATOM      8  C   UNL     1       9.042 -13.463 -14.687  0.00  0.00    +0.000 C 
BRANCH   8   6
ATOM      6  C   UNL     1       8.950 -13.945 -13.239  0.00  0.00    +0.000 C 
BRANCH   6   5
ATOM      5  C   UNL     1      10.323 -14.010 -12.558  0.00  0.00    +0.000 C 
BRANCH   5   7
ATOM      7  C   UNL     1      11.298 -12.936 -13.053  0.00  0.00    +0.000 C 
BRANCH   7  10
ATOM     10  C   UNL     1      11.665 -11.937 -11.994  0.00  0.00    +0.000 C 
ATOM     12  C   UNL     1      10.767 -11.290 -11.237  0.00  0.00    +0.000 C 
BRANCH  12   9
ATOM      9  C   UNL     1      11.137 -10.292 -10.169  0.00  0.00    +0.000 C 
ATOM     15  C   UNL     1      11.841  -9.087 -10.794  0.00  0.00    +0.000 C 
ATOM     16  C   UNL     1      12.030 -10.952  -9.119  0.00  0.00    +0.000 C 
ENDBRANCH  12   9
ENDBRANCH   7  10
ENDBRANCH   5   7
ENDBRANCH   6   5
ENDBRANCH   8   6
ENDBRANCH  11   8
BRANCH   4  13
ATOM     13  C   UNL     1       6.395 -10.853 -13.908  0.00  0.00    +0.000 C 
BRANCH  13  14
ATOM     14  C   UNL     1       6.965  -9.530 -13.485  0.00  0.00    +0.000 A 
ATOM     17  C   UNL     1       6.592  -8.363 -14.153  0.00  0.00    +0.000 A 
ATOM     18  C   UNL     1       7.868  -9.467 -12.423  0.00  0.00    +0.000 A 
ATOM     19  C   UNL     1       7.121  -7.134 -13.759  0.00  0.00    +0.000 A 
ATOM     20  C   UNL     1       8.398  -8.237 -12.030  0.00  0.00    +0.000 A 
ATOM     21  C   UNL     1       8.024  -7.071 -12.697  0.00  0.00    +0.000 A 
BRANCH  19   2
ATOM      2  O   UNL     1       6.748  -6.002 -14.420  0.00  0.00    +0.000 OA
ATOM     22  C   UNL     1       5.735  -6.135 -15.414  0.00  0.00    +0.000 C 
ENDBRANCH  19   2
BRANCH  21   3
ATOM      3  O   UNL     1       8.548  -5.877 -12.304  0.00  0.00    +0.000 OA
ATOM     24  H   UNL     1       7.988  -5.501 -11.604  0.00  0.00    +0.000 HD
ENDBRANCH  21   3
ENDBRANCH  13  14
ENDBRANCH   4  13
TORSDOF 10
ENDMDL
MODEL 7
REMARK VINA RESULT:      -4.7      7.011     10.437
REMARK  Name = 1548943
REMARK  13 active torsions:
REMARK  status: ('A' for Active; 'I' for Inactive)
REMARK    1  A    between atoms: O_2  and  C_19
REMARK    2  A    between atoms: O_2  and  C_22
REMARK    3  A    between atoms: O_3  and  C_21
REMARK    4  A    between atoms: N_4  and  C_13
REMARK    5  A    between atoms: C_5  and  C_6
REMARK    6  A    between atoms: C_5  and  C_7
REMARK    7  A    between atoms: C_6  and  C_8
REMARK    8  A    between atoms: C_7  and  C_10
REMARK    9  A    between atoms: C_8  and  C_11
REMARK   10  A    between atoms: C_9  and  C_12
REMARK   11  A    between atoms: C_9  and  C_15
REMARK   12  A    between atoms: C_9  and  C_16
REMARK   13  A    between atoms: C_13  and  C_14
REMARK                            x       y       z     vdW  Elec       q    Type
REMARK                         _______ _______ _______ _____ _____    ______ ____
ROOT
ATOM      1  O   UNL     1       0.533 -16.903  -6.405  0.00  0.00    +0.000 OA
ATOM      4  N   UNL     1       1.649 -15.030  -7.215  0.00  0.00    +0.000 N 
ATOM     11  C   UNL     1       0.791 -15.701  -6.361  0.00  0.00    +0.000 C 
ATOM     23  H   UNL     1       1.781 -14.029  -7.107  0.00  0.00    +0.000 HD
ENDROOT
BRANCH  11   8
ATOM      8  C   UNL     1       0.161 -14.793  -5.323  0.00  0.00    +0.000 C 
BRANCH   8   6
ATOM      6  C   UNL     1       0.503 -15.212  -3.894  0.00  0.00    +0.000 C 
BRANCH   6   5
ATOM      5  C   UNL     1       2.015 -15.219  -3.635  0.00  0.00    +0.000 C 
BRANCH   5   7
ATOM      7  C   UNL     1       2.642 -13.821  -3.663  0.00  0.00    +0.000 C 
BRANCH   7  10
ATOM     10  C   UNL     1       2.338 -13.010  -2.436  0.00  0.00    +0.000 C 
ATOM     12  C   UNL     1       3.264 -12.639  -1.540  0.00  0.00    +0.000 C 
BRANCH  12   9
ATOM      9  C   UNL     1       2.958 -11.818  -0.313  0.00  0.00    +0.000 C 
ATOM     15  C   UNL     1       1.458 -11.538  -0.226  0.00  0.00    +0.000 C 
ATOM     16  C   UNL     1       3.749 -10.510  -0.343  0.00  0.00    +0.000 C 
ENDBRANCH  12   9
ENDBRANCH   7  10
ENDBRANCH   5   7
ENDBRANCH   6   5
ENDBRANCH   8   6
ENDBRANCH  11   8
BRANCH   4  13
ATOM     13  C   UNL     1       2.362 -15.681  -8.290  0.00  0.00    +0.000 C 
BRANCH  13  14
ATOM     14  C   UNL     1       1.815 -15.302  -9.636  0.00  0.00    +0.000 A 
ATOM     17  C   UNL     1       1.051 -16.217 -10.361  0.00  0.00    +0.000 A 
ATOM     18  C   UNL     1       2.070 -14.035 -10.162  0.00  0.00    +0.000 A 
ATOM     19  C   UNL     1       0.542 -15.865 -11.611  0.00  0.00    +0.000 A 
ATOM     20  C   UNL     1       1.560 -13.683 -11.412  0.00  0.00    +0.000 A 
ATOM     21  C   UNL     1       0.797 -14.598 -12.136  0.00  0.00    +0.000 A 
BRANCH  19   2
ATOM      2  O   UNL     1      -0.203 -16.768 -12.309  0.00  0.00    +0.000 OA
ATOM     22  C   UNL     1      -1.564 -16.929 -11.915  0.00  0.00    +0.000 C 
ENDBRANCH  19   2
BRANCH  21   3
ATOM      3  O   UNL     1       0.306 -14.243 -13.356  0.00  0.00    +0.000 OA
ATOM     24  H   UNL     1      -0.344 -14.907 -13.642  0.00  0.00    +0.000 HD
ENDBRANCH  21   3
ENDBRANCH  13  14
ENDBRANCH   4  13
TORSDOF 10
ENDMDL
MODEL 8
REMARK VINA RESULT:      -4.6     17.010     19.495
REMARK  Name = 1548943
REMARK  13 active torsions:
REMARK  status: ('A' for Active; 'I' for Inactive)
REMARK    1  A    between atoms: O_2  and  C_19
REMARK    2  A    between atoms: O_2  and  C_22
REMARK    3  A    between atoms: O_3  and  C_21
REMARK    4  A    between atoms: N_4  and  C_13
REMARK    5  A    between atoms: C_5  and  C_6
REMARK    6  A    between atoms: C_5  and  C_7
REMARK    7  A    between atoms: C_6  and  C_8
REMARK    8  A    between atoms: C_7  and  C_10
REMARK    9  A    between atoms: C_8  and  C_11
REMARK   10  A    between atoms: C_9  and  C_12
REMARK   11  A    between atoms: C_9  and  C_15
REMARK   12  A    between atoms: C_9  and  C_16
REMARK   13  A    between atoms: C_13  and  C_14
REMARK                            x       y       z     vdW  Elec       q    Type
REMARK                         _______ _______ _______ _____ _____    ______ ____
ROOT
ATOM      1  O   UNL     1      -9.483  -6.200  14.251  0.00  0.00    +0.000 OA
ATOM      4  N   UNL     1     -10.191  -7.240  12.295  0.00  0.00    +0.000 N 
ATOM     11  C   UNL     1     -10.373  -6.535  13.472  0.00  0.00    +0.000 C 
ATOM     23  H   UNL     1     -10.997  -7.486  11.728  0.00  0.00    +0.000 HD
ENDROOT
BRANCH  11   8
ATOM      8  C   UNL     1     -11.827  -6.200  13.740  0.00  0.00    +0.000 C 
BRANCH   8   6
ATOM      6  C   UNL     1     -11.993  -5.148  14.837  0.00  0.00    +0.000 C 
BRANCH   6   5
ATOM      5  C   UNL     1     -12.505  -3.810  14.289  0.00  0.00    +0.000 C 
BRANCH   5   7
ATOM      7  C   UNL     1     -13.382  -3.042  15.284  0.00  0.00    +0.000 C 
BRANCH   7  10
ATOM     10  C   UNL     1     -12.714  -1.814  15.836  0.00  0.00    +0.000 C 
ATOM     12  C   UNL     1     -11.387  -1.622  15.830  0.00  0.00    +0.000 C 
BRANCH  12   9
ATOM      9  C   UNL     1     -10.719  -0.386  16.377  0.00  0.00    +0.000 C 
ATOM     15  C   UNL     1      -9.463  -0.768  17.161  0.00  0.00    +0.000 C 
ATOM     16  C   UNL     1     -11.692   0.389  17.266  0.00  0.00    +0.000 C 
ENDBRANCH  12   9
ENDBRANCH   7  10
ENDBRANCH   5   7
ENDBRANCH   6   5
ENDBRANCH   8   6
ENDBRANCH  11   8
BRANCH   4  13
ATOM     13  C   UNL     1      -8.895  -7.678  11.830  0.00  0.00    +0.000 C 
BRANCH  13  14
ATOM     14  C   UNL     1      -9.008  -8.727  10.762  0.00  0.00    +0.000 A 
ATOM     17  C   UNL     1      -9.471  -8.382   9.491  0.00  0.00    +0.000 A 
ATOM     18  C   UNL     1      -8.650 -10.047  11.038  0.00  0.00    +0.000 A 
ATOM     19  C   UNL     1      -9.574  -9.356   8.499  0.00  0.00    +0.000 A 
ATOM     20  C   UNL     1      -8.754 -11.021  10.045  0.00  0.00    +0.000 A 
ATOM     21  C   UNL     1      -9.216 -10.675   8.775  0.00  0.00    +0.000 A 
BRANCH  19   2
ATOM      2  O   UNL     1     -10.028  -9.006   7.262  0.00  0.00    +0.000 OA
ATOM     22  C   UNL     1     -10.262  -7.619   7.026  0.00  0.00    +0.000 C 
ENDBRANCH  19   2
BRANCH  21   3
ATOM      3  O   UNL     1      -9.314 -11.636   7.814  0.00  0.00    +0.000 OA
ATOM     24  H   UNL     1     -10.009 -12.267   8.067  0.00  0.00    +0.000 HD
ENDBRANCH  21   3
ENDBRANCH  13  14
ENDBRANCH   4  13
TORSDOF 10
ENDMDL
MODEL 9
REMARK VINA RESULT:      -4.6     15.709     18.005
REMARK  Name = 1548943
REMARK  13 active torsions:
REMARK  status: ('A' for Active; 'I' for Inactive)
REMARK    1  A    between atoms: O_2  and  C_19
REMARK    2  A    between atoms: O_2  and  C_22
REMARK    3  A    between atoms: O_3  and  C_21
REMARK    4  A    between atoms: N_4  and  C_13
REMARK    5  A    between atoms: C_5  and  C_6
REMARK    6  A    between atoms: C_5  and  C_7
REMARK    7  A    between atoms: C_6  and  C_8
REMARK    8  A    between atoms: C_7  and  C_10
REMARK    9  A    between atoms: C_8  and  C_11
REMARK   10  A    between atoms: C_9  and  C_12
REMARK   11  A    between atoms: C_9  and  C_15
REMARK   12  A    between atoms: C_9  and  C_16
REMARK   13  A    between atoms: C_13  and  C_14
REMARK                            x       y       z     vdW  Elec       q    Type
REMARK                         _______ _______ _______ _____ _____    ______ ____
ROOT
ATOM      1  O   UNL     1     -15.056 -11.560  -3.725  0.00  0.00    +0.000 OA
ATOM      4  N   UNL     1     -13.724 -13.206  -4.688  0.00  0.00    +0.000 N 
ATOM     11  C   UNL     1     -13.981 -12.147  -3.834  0.00  0.00    +0.000 C 
ATOM     23  H   UNL     1     -12.794 -13.611  -4.717  0.00  0.00    +0.000 HD
ENDROOT
BRANCH  11   8
ATOM      8  C   UNL     1     -12.773 -11.746  -3.011  0.00  0.00    +0.000 C 
BRANCH   8   6
ATOM      6  C   UNL     1     -12.926 -12.105  -1.533  0.00  0.00    +0.000 C 
BRANCH   6   5
ATOM      5  C   UNL     1     -13.726 -11.051  -0.757  0.00  0.00    +0.000 C 
BRANCH   5   7
ATOM      7  C   UNL     1     -13.837 -11.354   0.742  0.00  0.00    +0.000 C 
BRANCH   7  10
ATOM     10  C   UNL     1     -12.758 -10.702   1.558  0.00  0.00    +0.000 C 
ATOM     12  C   UNL     1     -11.824 -11.384   2.239  0.00  0.00    +0.000 C 
BRANCH  12   9
ATOM      9  C   UNL     1     -10.737 -10.728   3.052  0.00  0.00    +0.000 C 
ATOM     15  C   UNL     1     -10.631 -11.394   4.425  0.00  0.00    +0.000 C 
ATOM     16  C   UNL     1     -11.018  -9.233   3.200  0.00  0.00    +0.000 C 
ENDBRANCH  12   9
ENDBRANCH   7  10
ENDBRANCH   5   7
ENDBRANCH   6   5
ENDBRANCH   8   6
ENDBRANCH  11   8
BRANCH   4  13
ATOM     13  C   UNL     1     -14.718 -13.761  -5.578  0.00  0.00    +0.000 C 
BRANCH  13  14
ATOM     14  C   UNL     1     -14.786 -13.013  -6.878  0.00  0.00    +0.000 A 
ATOM     17  C   UNL     1     -15.984 -12.965  -7.593  0.00  0.00    +0.000 A 
ATOM     18  C   UNL     1     -13.653 -12.366  -7.372  0.00  0.00    +0.000 A 
ATOM     19  C   UNL     1     -16.048 -12.270  -8.800  0.00  0.00    +0.000 A 
ATOM     20  C   UNL     1     -13.718 -11.671  -8.581  0.00  0.00    +0.000 A 
ATOM     21  C   UNL     1     -14.915 -11.623  -9.294  0.00  0.00    +0.000 A 
BRANCH  19   2
ATOM      2  O   UNL     1     -17.224 -12.230  -9.489  0.00  0.00    +0.000 OA
ATOM     22  C   UNL     1     -17.603 -13.412 -10.191  0.00  0.00    +0.000 C 
ENDBRANCH  19   2
BRANCH  21   3
ATOM      3  O   UNL     1     -14.965 -10.942 -10.472  0.00  0.00    +0.000 OA
ATOM     24  H   UNL     1     -15.197 -10.015 -10.293  0.00  0.00    +0.000 HD
ENDBRANCH  21   3
ENDBRANCH  13  14
ENDBRANCH   4  13
TORSDOF 10
ENDMDL
